AAT Bioquest®, Inc. 2024
Actelion Java MolfileCreator 1.0

 61 60  0  0  0  0  0  0  0  0999 V2000
   16.4545   -2.0000   -0.0000 C   0  0  0  0  0  0  0  0  0  0  0  0
   16.4545   -3.0000   -0.0000 C   0  0  0  0  0  0  0  0  0  0  0  0
   15.5885   -3.5000   -0.0000 C   0  0  0  0  0  0  0  0  0  0  0  0
   15.5885   -4.5000   -0.0000 C   0  0  0  0  0  0  0  0  0  0  0  0
   14.7224   -5.0000   -0.0000 C   0  0  0  0  0  0  0  0  0  0  0  0
   14.7224   -6.0000   -0.0000 C   0  0  0  0  0  0  0  0  0  0  0  0
   13.8564   -6.5000   -0.0000 C   0  0  0  0  0  0  0  0  0  0  0  0
   13.8564   -7.5000   -0.0000 C   0  0  0  0  0  0  0  0  0  0  0  0
   12.9904   -8.0000   -0.0000 C   0  0  0  0  0  0  0  0  0  0  0  0
   12.9904   -9.0000   -0.0000 C   0  0  0  0  0  0  0  0  0  0  0  0
   12.1244   -9.5000   -0.0000 C   0  0  0  0  0  0  0  0  0  0  0  0
   12.1244  -10.5000   -0.0000 C   0  0  0  0  0  0  0  0  0  0  0  0
   11.2583  -11.0000   -0.0000 C   0  0  0  0  0  0  0  0  0  0  0  0
   11.2583  -12.0000   -0.0000 C   0  0  0  0  0  0  0  0  0  0  0  0
   10.3923  -12.5000   -0.0000 C   0  0  0  0  0  0  0  0  0  0  0  0
   10.3923  -13.5000   -0.0000 C   0  0  0  0  0  0  0  0  0  0  0  0
   15.5885   -1.5000   -0.0000 O   0  0  0  0  0  0  0  0  0  0  0  0
   17.3205   -1.5000   -0.0000 O   0  0  0  0  0  0  0  0  0  0  0  0
   17.3205   -0.5000   -0.0000 C   0  0  0  0  0  0  0  0  0  0  0  0
   18.1865   -0.0000   -0.0000 C   0  0  0  0  0  0  0  0  0  0  0  0
   19.0526   -0.5000   -0.0000 O   0  0  0  0  0  0  0  0  0  0  0  0
   19.9186   -0.0000   -0.0000 C   0  0  0  0  0  0  0  0  0  0  0  0
   20.7846   -0.5000   -0.0000 C   0  0  0  0  0  0  0  0  0  0  0  0
   21.6506   -0.0000   -0.0000 C   0  0  0  0  0  0  0  0  0  0  0  0
   22.5167   -0.5000   -0.0000 C   0  0  0  0  0  0  0  0  0  0  0  0
   23.3827   -0.0000   -0.0000 C   0  0  0  0  0  0  0  0  0  0  0  0
   24.2487   -0.5000   -0.0000 C   0  0  0  0  0  0  0  0  0  0  0  0
   25.1147   -0.0000   -0.0000 C   0  0  0  0  0  0  0  0  0  0  0  0
   25.9808   -0.5000   -0.0000 C   0  0  0  0  0  0  0  0  0  0  0  0
   26.8468   -0.0000   -0.0000 C   0  0  0  0  0  0  0  0  0  0  0  0
   27.7128   -0.5000   -0.0000 C   0  0  0  0  0  0  0  0  0  0  0  0
   27.7128   -1.5000   -0.0000 C   0  0  0  0  0  0  0  0  0  0  0  0
   28.5788   -2.0000   -0.0000 C   0  0  0  0  0  0  0  0  0  0  0  0
   28.5788   -3.0000   -0.0000 C   0  0  0  0  0  0  0  0  0  0  0  0
   29.4449   -3.5000   -0.0000 C   0  0  0  0  0  0  0  0  0  0  0  0
   29.4449   -4.5000   -0.0000 C   0  0  0  0  0  0  0  0  0  0  0  0
   30.3109   -5.0000   -0.0000 C   0  0  0  0  0  0  0  0  0  0  0  0
   30.3109   -6.0000   -0.0000 C   0  0  0  0  0  0  0  0  0  0  0  0
   31.1769   -6.5000   -0.0000 C   0  0  0  0  0  0  0  0  0  0  0  0
   19.9186    1.0000   -0.0000 O   0  0  0  0  0  0  0  0  0  0  0  0
   16.4545   -0.0000   -0.0000 C   0  0  0  0  0  0  0  0  0  0  0  0
   15.5885   -0.5000   -0.0000 O   0  0  0  0  0  0  0  0  0  0  0  0
   14.7224   -0.0000   -0.0000 C   0  0  0  0  0  0  0  0  0  0  0  0
   13.8564   -0.5000   -0.0000 C   0  0  0  0  0  0  0  0  0  0  0  0
   12.9904   -0.0000   -0.0000 C   0  0  0  0  0  0  0  0  0  0  0  0
   12.1244   -0.5000   -0.0000 C   0  0  0  0  0  0  0  0  0  0  0  0
   11.2583   -0.0000   -0.0000 C   0  0  0  0  0  0  0  0  0  0  0  0
   10.3923   -0.5000   -0.0000 C   0  0  0  0  0  0  0  0  0  0  0  0
    9.5263   -0.0000   -0.0000 C   0  0  0  0  0  0  0  0  0  0  0  0
    8.6603   -0.5000   -0.0000 C   0  0  0  0  0  0  0  0  0  0  0  0
    7.7942   -0.0000   -0.0000 C   0  0  0  0  0  0  0  0  0  0  0  0
    6.9282   -0.5000   -0.0000 C   0  0  0  0  0  0  0  0  0  0  0  0
    6.9282   -1.5000   -0.0000 C   0  0  0  0  0  0  0  0  0  0  0  0
    6.0622   -2.0000   -0.0000 C   0  0  0  0  0  0  0  0  0  0  0  0
    6.0622   -3.0000   -0.0000 C   0  0  0  0  0  0  0  0  0  0  0  0
    5.1962   -3.5000   -0.0000 C   0  0  0  0  0  0  0  0  0  0  0  0
    5.1962   -4.5000   -0.0000 C   0  0  0  0  0  0  0  0  0  0  0  0
    4.3301   -5.0000   -0.0000 C   0  0  0  0  0  0  0  0  0  0  0  0
    4.3301   -6.0000   -0.0000 C   0  0  0  0  0  0  0  0  0  0  0  0
    3.4641   -6.5000   -0.0000 C   0  0  0  0  0  0  0  0  0  0  0  0
   14.7224    1.0000   -0.0000 O   0  0  0  0  0  0  0  0  0  0  0  0
  1  2  1  0  0  0  0
  2  3  1  0  0  0  0
  3  4  1  0  0  0  0
  4  5  1  0  0  0  0
  5  6  1  0  0  0  0
  6  7  1  0  0  0  0
  7  8  1  0  0  0  0
  8  9  1  0  0  0  0
  9 10  1  0  0  0  0
 10 11  1  0  0  0  0
 11 12  1  0  0  0  0
 12 13  1  0  0  0  0
 13 14  1  0  0  0  0
 14 15  1  0  0  0  0
 15 16  1  0  0  0  0
  1 17  2  0  0  0  0
  1 18  1  0  0  0  0
 18 19  1  0  0  0  0
 19 20  1  0  0  0  0
 20 21  1  0  0  0  0
 21 22  1  0  0  0  0
 22 23  1  0  0  0  0
 23 24  1  0  0  0  0
 24 25  1  0  0  0  0
 25 26  1  0  0  0  0
 26 27  1  0  0  0  0
 27 28  1  0  0  0  0
 28 29  1  0  0  0  0
 29 30  1  0  0  0  0
 30 31  2  0  0  0  0
 31 32  1  0  0  0  0
 32 33  1  0  0  0  0
 33 34  1  0  0  0  0
 34 35  1  0  0  0  0
 35 36  1  0  0  0  0
 36 37  1  0  0  0  0
 37 38  1  0  0  0  0
 38 39  1  0  0  0  0
 22 40  2  0  0  0  0
 19 41  1  0  0  0  0
 41 42  1  0  0  0  0
 42 43  1  0  0  0  0
 43 44  1  0  0  0  0
 44 45  1  0  0  0  0
 45 46  1  0  0  0  0
 46 47  1  0  0  0  0
 47 48  1  0  0  0  0
 48 49  1  0  0  0  0
 49 50  1  0  0  0  0
 50 51  1  0  0  0  0
 51 52  2  0  0  0  0
 52 53  1  0  0  0  0
 53 54  1  0  0  0  0
 54 55  1  0  0  0  0
 55 56  1  0  0  0  0
 56 57  1  0  0  0  0
 57 58  1  0  0  0  0
 58 59  1  0  0  0  0
 59 60  1  0  0  0  0
 43 61  2  0  0  0  0
M  END
